
OS:Version,
  {07110a5c-d044-4373-920a-2fc742465391}, !- Handle
  1.14.0;                                 !- Version Identifier

OS:Site,
  {ef1ec0df-27e2-4ced-b122-c6ba4567e72e}, !- Handle
  Denver-Stapleton,                       !- Name
  39.76,                                  !- Latitude {deg}
  -104.86,                                !- Longitude {deg}
  -7,                                     !- Time Zone {hr}
  1611,                                   !- Elevation {m}
  Country;                                !- Terrain

OS:RunPeriod,
  {58f90092-52f7-48d4-bac1-1386d2778ed2}, !- Handle
  Run Period 1,                           !- Name
  1,                                      !- Begin Month
  1,                                      !- Begin Day of Month
  12,                                     !- End Month
  31,                                     !- End Day of Month
  Yes,                                    !- Use Weather File Holidays and Special Days
  Yes,                                    !- Use Weather File Daylight Saving Period
  Yes,                                    !- Apply Weekend Holiday Rule
  Yes,                                    !- Use Weather File Rain Indicators
  Yes,                                    !- Use Weather File Snow Indicators
  ;                                       !- Number of Times Runperiod to be Repeated

OS:YearDescription,
  {e34039e0-b2be-4842-b437-1a1023414fa1}, !- Handle
  ,                                       !- Calendar Year
  Sunday;                                 !- Day of Week for Start Day

OS:Schedule:Day,
  {4bf244b8-6548-48a6-bd23-f9e156941c0a}, !- Handle
  Zone Cooling Setpoint All Days,         !- Name
  {c42acbe6-7659-4d6d-bedc-aa8e8a8644b3}, !- Schedule Type Limits Name
  ,                                       !- Interpolate to Timestep
  1,                                      !- Hour 1
  0,                                      !- Minute 1
  27,                                     !- Value Until Time 1
  2,                                      !- Hour 2
  0,                                      !- Minute 2
  27,                                     !- Value Until Time 2
  3,                                      !- Hour 3
  0,                                      !- Minute 3
  27,                                     !- Value Until Time 3
  4,                                      !- Hour 4
  0,                                      !- Minute 4
  27,                                     !- Value Until Time 4
  5,                                      !- Hour 5
  0,                                      !- Minute 5
  27,                                     !- Value Until Time 5
  6,                                      !- Hour 6
  0,                                      !- Minute 6
  27,                                     !- Value Until Time 6
  7,                                      !- Hour 7
  0,                                      !- Minute 7
  27,                                     !- Value Until Time 7
  8,                                      !- Hour 8
  0,                                      !- Minute 8
  27,                                     !- Value Until Time 8
  9,                                      !- Hour 9
  0,                                      !- Minute 9
  27,                                     !- Value Until Time 9
  10,                                     !- Hour 10
  0,                                      !- Minute 10
  27,                                     !- Value Until Time 10
  11,                                     !- Hour 11
  0,                                      !- Minute 11
  27,                                     !- Value Until Time 11
  12,                                     !- Hour 12
  0,                                      !- Minute 12
  27,                                     !- Value Until Time 12
  13,                                     !- Hour 13
  0,                                      !- Minute 13
  27,                                     !- Value Until Time 13
  14,                                     !- Hour 14
  0,                                      !- Minute 14
  27,                                     !- Value Until Time 14
  15,                                     !- Hour 15
  0,                                      !- Minute 15
  27,                                     !- Value Until Time 15
  16,                                     !- Hour 16
  0,                                      !- Minute 16
  27,                                     !- Value Until Time 16
  17,                                     !- Hour 17
  0,                                      !- Minute 17
  27,                                     !- Value Until Time 17
  18,                                     !- Hour 18
  0,                                      !- Minute 18
  27,                                     !- Value Until Time 18
  19,                                     !- Hour 19
  0,                                      !- Minute 19
  27,                                     !- Value Until Time 19
  20,                                     !- Hour 20
  0,                                      !- Minute 20
  27,                                     !- Value Until Time 20
  21,                                     !- Hour 21
  0,                                      !- Minute 21
  27,                                     !- Value Until Time 21
  22,                                     !- Hour 22
  0,                                      !- Minute 22
  27,                                     !- Value Until Time 22
  23,                                     !- Hour 23
  0,                                      !- Minute 23
  27,                                     !- Value Until Time 23
  24,                                     !- Hour 24
  0,                                      !- Minute 24
  27;                                     !- Value Until Time 24

OS:ScheduleTypeLimits,
  {c42acbe6-7659-4d6d-bedc-aa8e8a8644b3}, !- Handle
  Temperature,                            !- Name
  -60,                                    !- Lower Limit Value
  200,                                    !- Upper Limit Value
  Continuous,                             !- Numeric Type
  Temperature;                            !- Unit Type

OS:Surface,
  {8337a7f9-e8c7-49bb-813a-99219fac8599}, !- Handle
  ZONE SURFACE ROOF,                      !- Name
  RoofCeiling,                            !- Surface Type
  {3cca9c3e-5a35-4c24-be8b-b73a16ed0f5f}, !- Construction Name
  {597a7094-d554-41e4-bcbf-0c9191864772}, !- Space Name
  Outdoors,                               !- Outside Boundary Condition
  ,                                       !- Outside Boundary Condition Object
  SunExposed,                             !- Sun Exposure
  WindExposed,                            !- Wind Exposure
  0,                                      !- View Factor to Ground
  ,                                       !- Number of Vertices
  8, 0, 2.7,                              !- X,Y,Z Vertex 1 {m}
  8, 6, 2.7,                              !- X,Y,Z Vertex 2 {m}
  0, 6, 2.7,                              !- X,Y,Z Vertex 3 {m}
  0, 0, 2.7;                              !- X,Y,Z Vertex 4 {m}

OS:Construction,
  {3cca9c3e-5a35-4c24-be8b-b73a16ed0f5f}, !- Handle
  LTROOF,                                 !- Name
  ,                                       !- Surface Rendering Name
  {477ab540-14e5-4ca3-b17e-ec2797d891c5}, !- Layer 1
  {291c4e69-be64-4836-949c-f376c8cf9673}, !- Layer 2
  {8fd3d064-62bf-4129-96a0-46bdac56d338}; !- Layer 3

OS:Material,
  {477ab540-14e5-4ca3-b17e-ec2797d891c5}, !- Handle
  ROOF DECK,                              !- Name
  Rough,                                  !- Roughness
  0.019,                                  !- Thickness {m}
  0.14,                                   !- Conductivity {W/m-K}
  530,                                    !- Density {kg/m3}
  900,                                    !- Specific Heat {J/kg-K}
  0.9,                                    !- Thermal Absorptance
  0.6,                                    !- Solar Absorptance
  0.6;                                    !- Visible Absorptance

OS:Material,
  {291c4e69-be64-4836-949c-f376c8cf9673}, !- Handle
  FIBERGLASS QUILT-2,                     !- Name
  Rough,                                  !- Roughness
  0.1118,                                 !- Thickness {m}
  0.04,                                   !- Conductivity {W/m-K}
  12,                                     !- Density {kg/m3}
  840,                                    !- Specific Heat {J/kg-K}
  0.9,                                    !- Thermal Absorptance
  0.6,                                    !- Solar Absorptance
  0.6;                                    !- Visible Absorptance

OS:Material,
  {8fd3d064-62bf-4129-96a0-46bdac56d338}, !- Handle
  PLASTERBOARD-2,                         !- Name
  Rough,                                  !- Roughness
  0.01,                                   !- Thickness {m}
  0.16,                                   !- Conductivity {W/m-K}
  950,                                    !- Density {kg/m3}
  840,                                    !- Specific Heat {J/kg-K}
  0.9,                                    !- Thermal Absorptance
  0.6,                                    !- Solar Absorptance
  0.6;                                    !- Visible Absorptance

OS:ThermalZone,
  {2f9739ec-7ae0-463d-b35a-73e73e1880ac}, !- Handle
  ZONE ONE Thermal Zone,                  !- Name
  1,                                      !- Multiplier
  2.7,                                    !- Ceiling Height {m}
  129.6,                                  !- Volume {m3}
  ,                                       !- Floor Area {m2}
  ,                                       !- Zone Inside Convection Algorithm
  ,                                       !- Zone Outside Convection Algorithm
  ,                                       !- Zone Conditioning Equipment List Name
  {42ece479-159a-4ed7-966e-086c8c9bea67}, !- Zone Air Inlet Port List
  {43d44d53-de07-49e3-82b6-42987b320d34}, !- Zone Air Exhaust Port List
  {3b6c80ec-1d06-4157-8b48-1ad72d5607e9}, !- Zone Air Node Name
  ,                                       !- Zone Return Air Node Name
  ,                                       !- Primary Daylighting Control Name
  ,                                       !- Fraction of Zone Controlled by Primary Daylighting Control
  ,                                       !- Secondary Daylighting Control Name
  ,                                       !- Fraction of Zone Controlled by Secondary Daylighting Control
  ,                                       !- Illuminance Map Name
  ,                                       !- Group Rendering Name
  {f937388d-4a9e-4eb7-9796-f31b80a36049}, !- Thermostat Name
  No;                                     !- Use Ideal Air Loads

OS:Node,
  {57b7e22a-03d7-4ffa-9abb-64cb845d73bc}, !- Handle
  {f04be53a-5a00-486a-9d9b-9d8881f02167}, !- Name
  {3b6c80ec-1d06-4157-8b48-1ad72d5607e9}, !- Inlet Port
  ;                                       !- Outlet Port

OS:Connection,
  {3b6c80ec-1d06-4157-8b48-1ad72d5607e9}, !- Handle
  {12eea4f3-7590-4f4f-8394-0b821ddd906d}, !- Name
  {2f9739ec-7ae0-463d-b35a-73e73e1880ac}, !- Source Object
  11,                                     !- Outlet Port
  {57b7e22a-03d7-4ffa-9abb-64cb845d73bc}, !- Target Object
  2;                                      !- Inlet Port

OS:PortList,
  {42ece479-159a-4ed7-966e-086c8c9bea67}, !- Handle
  {5481e58d-1f91-4040-941a-1e554494e5da}, !- Name
  {2f9739ec-7ae0-463d-b35a-73e73e1880ac}; !- HVAC Component

OS:PortList,
  {43d44d53-de07-49e3-82b6-42987b320d34}, !- Handle
  {1697956e-518a-4cbe-994c-7332aa165165}, !- Name
  {2f9739ec-7ae0-463d-b35a-73e73e1880ac}; !- HVAC Component

OS:Sizing:Zone,
  {bdccb579-407f-4704-91e5-772163d9ef58}, !- Handle
  {2f9739ec-7ae0-463d-b35a-73e73e1880ac}, !- Zone or ZoneList Name
  SupplyAirTemperature,                   !- Zone Cooling Design Supply Air Temperature Input Method
  14,                                     !- Zone Cooling Design Supply Air Temperature {C}
  11.11,                                  !- Zone Cooling Design Supply Air Temperature Difference {deltaC}
  SupplyAirTemperature,                   !- Zone Heating Design Supply Air Temperature Input Method
  40,                                     !- Zone Heating Design Supply Air Temperature {C}
  11.11,                                  !- Zone Heating Design Supply Air Temperature Difference {deltaC}
  0.0085,                                 !- Zone Cooling Design Supply Air Humidity Ratio {kg-H2O/kg-air}
  0.008,                                  !- Zone Heating Design Supply Air Humidity Ratio {kg-H2O/kg-air}
  ,                                       !- Zone Heating Sizing Factor
  ,                                       !- Zone Cooling Sizing Factor
  DesignDay,                              !- Cooling Design Air Flow Method
  ,                                       !- Cooling Design Air Flow Rate {m3/s}
  ,                                       !- Cooling Minimum Air Flow per Zone Floor Area {m3/s-m2}
  ,                                       !- Cooling Minimum Air Flow {m3/s}
  ,                                       !- Cooling Minimum Air Flow Fraction
  DesignDay,                              !- Heating Design Air Flow Method
  ,                                       !- Heating Design Air Flow Rate {m3/s}
  ,                                       !- Heating Maximum Air Flow per Zone Floor Area {m3/s-m2}
  ,                                       !- Heating Maximum Air Flow {m3/s}
  ,                                       !- Heating Maximum Air Flow Fraction
  ,                                       !- Design Zone Air Distribution Effectiveness in Cooling Mode
  ,                                       !- Design Zone Air Distribution Effectiveness in Heating Mode
  No,                                     !- Account for Dedicated Outdoor Air System
  NeutralSupplyAir,                       !- Dedicated Outdoor Air System Control Strategy
  autosize,                               !- Dedicated Outdoor Air Low Setpoint Temperature for Design {C}
  autosize;                               !- Dedicated Outdoor Air High Setpoint Temperature for Design {C}

OS:ZoneHVAC:EquipmentList,
  {408d4e44-1040-4a59-b452-01c0b153973f}, !- Handle
  {56d0fa21-e323-4fb0-865f-28ce141a7dcf}, !- Name
  {2f9739ec-7ae0-463d-b35a-73e73e1880ac}; !- Thermal Zone

OS:Space,
  {597a7094-d554-41e4-bcbf-0c9191864772}, !- Handle
  ZONE ONE,                               !- Name
  ,                                       !- Space Type Name
  ,                                       !- Default Construction Set Name
  ,                                       !- Default Schedule Set Name
  0,                                      !- Direction of Relative North {deg}
  0,                                      !- X Origin {m}
  0,                                      !- Y Origin {m}
  0,                                      !- Z Origin {m}
  ,                                       !- Building Story Name
  {2f9739ec-7ae0-463d-b35a-73e73e1880ac}; !- Thermal Zone Name

OS:ThermostatSetpoint:DualSetpoint,
  {f937388d-4a9e-4eb7-9796-f31b80a36049}, !- Handle
  {ed578c75-2e7d-4edf-9dde-04c54fcee62d}, !- Name
  {b6ff6982-c77c-4385-9edb-748fe203dc82}, !- Heating Setpoint Temperature Schedule Name
  {fdd5bce1-3b9d-4e20-a80b-6226fa34e380}; !- Cooling Setpoint Temperature Schedule Name

OS:Schedule:Year,
  {b6ff6982-c77c-4385-9edb-748fe203dc82}, !- Handle
  Heating Setpoints,                      !- Name
  {c42acbe6-7659-4d6d-bedc-aa8e8a8644b3}, !- Schedule Type Limits Name
  12,                                     !- Month 1
  31,                                     !- Day 1
  {5c1c4c76-265f-4936-bc9c-cbc3fda7a6df}; !- Week Schedule Until Date 1

OS:Schedule:Week,
  {5c1c4c76-265f-4936-bc9c-cbc3fda7a6df}, !- Handle
  Zone Heating Setpoint All Weeks,        !- Name
  ,                                       !- Schedule Rendering Name
  {eca20340-88b7-437b-b9af-944cc687a44d}, !- Sunday Schedule:Day Name
  {eca20340-88b7-437b-b9af-944cc687a44d}, !- Monday Schedule:Day Name
  {eca20340-88b7-437b-b9af-944cc687a44d}, !- Tuesday Schedule:Day Name
  {eca20340-88b7-437b-b9af-944cc687a44d}, !- Wednesday Schedule:Day Name
  {eca20340-88b7-437b-b9af-944cc687a44d}, !- Thursday Schedule:Day Name
  {eca20340-88b7-437b-b9af-944cc687a44d}, !- Friday Schedule:Day Name
  {eca20340-88b7-437b-b9af-944cc687a44d}, !- Saturday Schedule:Day Name
  {eca20340-88b7-437b-b9af-944cc687a44d}, !- Holiday Schedule:Day Name
  {eca20340-88b7-437b-b9af-944cc687a44d}, !- SummerDesignDay Schedule:Day Name
  {eca20340-88b7-437b-b9af-944cc687a44d}, !- WinterDesignDay Schedule:Day Name
  {eca20340-88b7-437b-b9af-944cc687a44d}, !- CustomDay1 Schedule:Day Name
  {eca20340-88b7-437b-b9af-944cc687a44d}; !- CustomDay2 Schedule:Day Name

OS:Schedule:Day,
  {eca20340-88b7-437b-b9af-944cc687a44d}, !- Handle
  Zone Heating Setpoint All Days,         !- Name
  {c42acbe6-7659-4d6d-bedc-aa8e8a8644b3}, !- Schedule Type Limits Name
  ,                                       !- Interpolate to Timestep
  1,                                      !- Hour 1
  0,                                      !- Minute 1
  20,                                     !- Value Until Time 1
  2,                                      !- Hour 2
  0,                                      !- Minute 2
  20,                                     !- Value Until Time 2
  3,                                      !- Hour 3
  0,                                      !- Minute 3
  20,                                     !- Value Until Time 3
  4,                                      !- Hour 4
  0,                                      !- Minute 4
  20,                                     !- Value Until Time 4
  5,                                      !- Hour 5
  0,                                      !- Minute 5
  20,                                     !- Value Until Time 5
  6,                                      !- Hour 6
  0,                                      !- Minute 6
  20,                                     !- Value Until Time 6
  7,                                      !- Hour 7
  0,                                      !- Minute 7
  20,                                     !- Value Until Time 7
  8,                                      !- Hour 8
  0,                                      !- Minute 8
  20,                                     !- Value Until Time 8
  9,                                      !- Hour 9
  0,                                      !- Minute 9
  20,                                     !- Value Until Time 9
  10,                                     !- Hour 10
  0,                                      !- Minute 10
  20,                                     !- Value Until Time 10
  11,                                     !- Hour 11
  0,                                      !- Minute 11
  20,                                     !- Value Until Time 11
  12,                                     !- Hour 12
  0,                                      !- Minute 12
  20,                                     !- Value Until Time 12
  13,                                     !- Hour 13
  0,                                      !- Minute 13
  20,                                     !- Value Until Time 13
  14,                                     !- Hour 14
  0,                                      !- Minute 14
  20,                                     !- Value Until Time 14
  15,                                     !- Hour 15
  0,                                      !- Minute 15
  20,                                     !- Value Until Time 15
  16,                                     !- Hour 16
  0,                                      !- Minute 16
  20,                                     !- Value Until Time 16
  17,                                     !- Hour 17
  0,                                      !- Minute 17
  20,                                     !- Value Until Time 17
  18,                                     !- Hour 18
  0,                                      !- Minute 18
  20,                                     !- Value Until Time 18
  19,                                     !- Hour 19
  0,                                      !- Minute 19
  20,                                     !- Value Until Time 19
  20,                                     !- Hour 20
  0,                                      !- Minute 20
  20,                                     !- Value Until Time 20
  21,                                     !- Hour 21
  0,                                      !- Minute 21
  20,                                     !- Value Until Time 21
  22,                                     !- Hour 22
  0,                                      !- Minute 22
  20,                                     !- Value Until Time 22
  23,                                     !- Hour 23
  0,                                      !- Minute 23
  20,                                     !- Value Until Time 23
  24,                                     !- Hour 24
  0,                                      !- Minute 24
  20;                                     !- Value Until Time 24

OS:Schedule:Year,
  {fdd5bce1-3b9d-4e20-a80b-6226fa34e380}, !- Handle
  Cooling Setpoints,                      !- Name
  {c42acbe6-7659-4d6d-bedc-aa8e8a8644b3}, !- Schedule Type Limits Name
  12,                                     !- Month 1
  31,                                     !- Day 1
  {ded2850f-d850-4583-942f-7f0933d32a84}; !- Week Schedule Until Date 1

OS:Schedule:Week,
  {ded2850f-d850-4583-942f-7f0933d32a84}, !- Handle
  Zone Cooling Setpoint All Weeks,        !- Name
  ,                                       !- Schedule Rendering Name
  {4bf244b8-6548-48a6-bd23-f9e156941c0a}, !- Sunday Schedule:Day Name
  {4bf244b8-6548-48a6-bd23-f9e156941c0a}, !- Monday Schedule:Day Name
  {4bf244b8-6548-48a6-bd23-f9e156941c0a}, !- Tuesday Schedule:Day Name
  {4bf244b8-6548-48a6-bd23-f9e156941c0a}, !- Wednesday Schedule:Day Name
  {4bf244b8-6548-48a6-bd23-f9e156941c0a}, !- Thursday Schedule:Day Name
  {4bf244b8-6548-48a6-bd23-f9e156941c0a}, !- Friday Schedule:Day Name
  {4bf244b8-6548-48a6-bd23-f9e156941c0a}, !- Saturday Schedule:Day Name
  {4bf244b8-6548-48a6-bd23-f9e156941c0a}, !- Holiday Schedule:Day Name
  {4bf244b8-6548-48a6-bd23-f9e156941c0a}, !- SummerDesignDay Schedule:Day Name
  {4bf244b8-6548-48a6-bd23-f9e156941c0a}, !- WinterDesignDay Schedule:Day Name
  {4bf244b8-6548-48a6-bd23-f9e156941c0a}, !- CustomDay1 Schedule:Day Name
  {4bf244b8-6548-48a6-bd23-f9e156941c0a}; !- CustomDay2 Schedule:Day Name

OS:Surface,
  {a162a1c7-9862-494f-9efc-cf4720af3680}, !- Handle
  ZONE SURFACE EAST,                      !- Name
  Wall,                                   !- Surface Type
  {8f28888e-1993-4f08-a903-3494a3bd1045}, !- Construction Name
  {597a7094-d554-41e4-bcbf-0c9191864772}, !- Space Name
  Outdoors,                               !- Outside Boundary Condition
  ,                                       !- Outside Boundary Condition Object
  SunExposed,                             !- Sun Exposure
  WindExposed,                            !- Wind Exposure
  0.5,                                    !- View Factor to Ground
  ,                                       !- Number of Vertices
  8, 0, 2.7,                              !- X,Y,Z Vertex 1 {m}
  8, 0, 0,                                !- X,Y,Z Vertex 2 {m}
  8, 6, 0,                                !- X,Y,Z Vertex 3 {m}
  8, 6, 2.7;                              !- X,Y,Z Vertex 4 {m}

OS:Construction,
  {8f28888e-1993-4f08-a903-3494a3bd1045}, !- Handle
  LTWALL,                                 !- Name
  ,                                       !- Surface Rendering Name
  {ee281970-e299-4098-9f04-9210a640ab75}, !- Layer 1
  {39cce932-9fa1-4d97-abfb-3e200b020f7d}, !- Layer 2
  {fa88a7de-f733-46b9-9bba-1cc1d8895957}; !- Layer 3

OS:Material,
  {ee281970-e299-4098-9f04-9210a640ab75}, !- Handle
  WOOD SIDING-1,                          !- Name
  Rough,                                  !- Roughness
  0.009,                                  !- Thickness {m}
  0.14,                                   !- Conductivity {W/m-K}
  530,                                    !- Density {kg/m3}
  900,                                    !- Specific Heat {J/kg-K}
  0.9,                                    !- Thermal Absorptance
  0.6,                                    !- Solar Absorptance
  0.6;                                    !- Visible Absorptance

OS:Material,
  {39cce932-9fa1-4d97-abfb-3e200b020f7d}, !- Handle
  FIBERGLASS QUILT-1,                     !- Name
  Rough,                                  !- Roughness
  0.066,                                  !- Thickness {m}
  0.04,                                   !- Conductivity {W/m-K}
  12,                                     !- Density {kg/m3}
  840,                                    !- Specific Heat {J/kg-K}
  0.9,                                    !- Thermal Absorptance
  0.6,                                    !- Solar Absorptance
  0.6;                                    !- Visible Absorptance

OS:Material,
  {fa88a7de-f733-46b9-9bba-1cc1d8895957}, !- Handle
  PLASTERBOARD-1,                         !- Name
  Rough,                                  !- Roughness
  0.012,                                  !- Thickness {m}
  0.16,                                   !- Conductivity {W/m-K}
  950,                                    !- Density {kg/m3}
  840,                                    !- Specific Heat {J/kg-K}
  0.9,                                    !- Thermal Absorptance
  0.6,                                    !- Solar Absorptance
  0.6;                                    !- Visible Absorptance

OS:ShadowCalculation,
  {3f90aead-2d54-47e6-84c5-c37fdce42b39}, !- Handle
  1,                                      !- Calculation Frequency
  15000;                                  !- Maximum Figures in Shadow Overlap Calculations

OS:ScheduleTypeLimits,
  {8ee88ef9-7159-4838-bd87-89b4cd71c640}, !- Handle
  Fraction,                               !- Name
  0,                                      !- Lower Limit Value
  1,                                      !- Upper Limit Value
  Continuous;                             !- Numeric Type

OS:Construction,
  {a89bf911-7bea-47b3-9202-f181540670ac}, !- Handle
  LTFLOOR,                                !- Name
  ,                                       !- Surface Rendering Name
  {18761c25-cf00-495d-85e0-7ed997a8e646}, !- Layer 1
  {f3fb6d39-d27e-4096-a829-5045b6ba8039}; !- Layer 2

OS:Material:NoMass,
  {18761c25-cf00-495d-85e0-7ed997a8e646}, !- Handle
  R-25 INSULATION,                        !- Name
  Rough,                                  !- Roughness
  25.075,                                 !- Thermal Resistance {m2-K/W}
  0.9,                                    !- Thermal Absorptance
  0.6,                                    !- Solar Absorptance
  0.6;                                    !- Visible Absorptance

OS:Material,
  {f3fb6d39-d27e-4096-a829-5045b6ba8039}, !- Handle
  TIMBER FLOORING,                        !- Name
  Rough,                                  !- Roughness
  0.025,                                  !- Thickness {m}
  0.14,                                   !- Conductivity {W/m-K}
  650,                                    !- Density {kg/m3}
  1200,                                   !- Specific Heat {J/kg-K}
  0.9,                                    !- Thermal Absorptance
  0.6,                                    !- Solar Absorptance
  0.6;                                    !- Visible Absorptance

OS:Schedule:Year,
  {8a376938-2c52-43fe-8cb8-6b1ea6660e9a}, !- Handle
  Sch 1,                                  !- Name
  {8ee88ef9-7159-4838-bd87-89b4cd71c640}, !- Schedule Type Limits Name
  12,                                     !- Month 1
  31,                                     !- Day 1
  {30dabc0a-1f9d-4b79-8545-330bdf400a36}; !- Week Schedule Until Date 1

OS:Schedule:Week,
  {30dabc0a-1f9d-4b79-8545-330bdf400a36}, !- Handle
  Week Sch 1,                             !- Name
  ,                                       !- Schedule Rendering Name
  {98a170f7-0fc7-4ff7-970f-899ea1efbbdb}, !- Sunday Schedule:Day Name
  {98a170f7-0fc7-4ff7-970f-899ea1efbbdb}, !- Monday Schedule:Day Name
  {98a170f7-0fc7-4ff7-970f-899ea1efbbdb}, !- Tuesday Schedule:Day Name
  {98a170f7-0fc7-4ff7-970f-899ea1efbbdb}, !- Wednesday Schedule:Day Name
  {98a170f7-0fc7-4ff7-970f-899ea1efbbdb}, !- Thursday Schedule:Day Name
  {98a170f7-0fc7-4ff7-970f-899ea1efbbdb}, !- Friday Schedule:Day Name
  {98a170f7-0fc7-4ff7-970f-899ea1efbbdb}, !- Saturday Schedule:Day Name
  {98a170f7-0fc7-4ff7-970f-899ea1efbbdb}, !- Holiday Schedule:Day Name
  {98a170f7-0fc7-4ff7-970f-899ea1efbbdb}, !- SummerDesignDay Schedule:Day Name
  {98a170f7-0fc7-4ff7-970f-899ea1efbbdb}, !- WinterDesignDay Schedule:Day Name
  {98a170f7-0fc7-4ff7-970f-899ea1efbbdb}, !- CustomDay1 Schedule:Day Name
  {98a170f7-0fc7-4ff7-970f-899ea1efbbdb}; !- CustomDay2 Schedule:Day Name

OS:Schedule:Day,
  {98a170f7-0fc7-4ff7-970f-899ea1efbbdb}, !- Handle